14
   
C          0.00000        0.00000        0.00000
H          0.00000        0.00000        1.10056
C          1.46209        0.00000       -0.46855
C         -0.73105       -1.26621       -0.46855
C         -0.73105        1.26621       -0.46855
H          1.52118        0.00000       -1.56505
H         -0.76059       -1.31738       -1.56505
H         -0.76059        1.31738       -1.56505
H          1.99755        0.88622       -0.10723
H          1.99755       -0.88622       -0.10723
H         -0.23129       -2.17304       -0.10723
H         -1.76626       -1.28682       -0.10723
H         -1.76626        1.28682       -0.10723
H         -0.23129        2.17304       -0.10723
