12
   
C          0.00000        0.00000        0.00000
O          0.00000        0.00000        1.40962
C          1.30608        0.00000        1.95787
C          1.19221        0.00000        3.47353
H          2.18666        0.00000        3.93332
H         -1.04410        0.00000       -0.32474
H          0.50079       -0.89267       -0.41051
H          0.50079        0.89267       -0.41051
H          1.86435       -0.88728        1.61056
H          1.86435        0.88728        1.61056
H          0.64981       -0.88690        3.81673
H          0.64981        0.88690        3.81673
