9
   
H         -1.81763       -0.80620        0.00000
O         -0.85078       -0.87151        0.00000
C         -0.32298        0.45206        0.00000
C          1.19308        0.34760        0.00000
H          1.64898        1.34394        0.00000
H         -0.66062        1.01252       -0.88753
H         -0.66062        1.01252        0.88753
H          1.53777       -0.19434       -0.88682
H          1.53777       -0.19434        0.88682
