10
   
H         -1.57413        0.33845        0.00000
C         -0.49500        0.20144        0.00000
C          0.18857       -0.05954       -1.30114
C          0.18857       -0.05954        1.30114
H         -0.33790        0.40751       -2.14134
H         -0.33790        0.40751        2.14134
H          1.22176        0.31596       -1.29638
H          1.22176        0.31596        1.29638
H          0.25678       -1.13976       -1.52896
H          0.25678       -1.13976        1.52896
