13
   
H         -1.13405        1.76167        0.00000
C         -1.32915        0.67205        0.00000
C         -0.06360       -0.12883        0.00000
C          0.67426       -0.31636        1.28970
C          0.67426       -0.31636       -1.28970
H         -1.94006        0.46750        0.88859
H         -1.94006        0.46750       -0.88859
H          1.28359        0.56876        1.55544
H         -0.01165       -0.48291        2.13019
H          1.36783       -1.16569        1.24157
H          1.28359        0.56876       -1.55544
H         -0.01165       -0.48291       -2.13019
H          1.36783       -1.16569       -1.24157
