15
   
C         -1.53233        0.02247        0.00000
C         -0.00192        0.01421        0.00000
O          0.37239        1.40356        0.00000
H          1.34248        1.44036        0.00000
H         -1.92991       -0.99819        0.00000
H         -1.90797        0.54382       -0.88653
H         -1.90797        0.54382        0.88653
C          0.54303       -0.66466       -1.26580
C          0.54303       -0.66466        1.26580
H          0.17836       -0.14752       -2.15943
H          0.17836       -0.14752        2.15943
H          0.23752       -1.71600       -1.32280
H          0.23752       -1.71600        1.32280
H          1.64084       -0.63767       -1.28032
H          1.64084       -0.63767        1.28032
